/*--------------------------------*- C++ -*----------------------------------*\
| =========                 |                                                 |
| \\      /  F ield         | OpenFOAM: The Open Source CFD Toolbox           |
|  \\    /   O peration     | Version:  4.1                                   |
|   \\  /    A nd           | Web:      www.OpenFOAM.org                      |
|    \\/     M anipulation  |                                                 |
\*---------------------------------------------------------------------------*/
FoamFile
{
    version     2.0;
    format      ascii;
    class       dictionary;
    object      blockMeshDict;
}
// * * * * * * * * * * * * * * * * * * * * * * * * * * * * * * * * * * * * * //
#include    "domain"

convertToMeters 1;

vertices
(
    ( $xmin $ymin $zmin )
    ( $xmax $ymin $zmin )
    ( $xmax $ymax $zmin )
    ( $xmin $ymax $zmin )
    ( $xmin $ymin $zmax )
    ( $xmax $ymin $zmax )
    ( $xmax $ymax $zmax )
    ( $xmin $ymax $zmax )
); 

blocks 
(
    hex ( 0 1 2 3 4 5 6 7 ) ( $nx $ny $nz ) simpleGrading ( 1 1 1 )
);

boundary
(
    inlet
    {
        type patch;
        faces
        (
            ( 0 4 7 3 )
        );
    }

    outlet
    {
        type patch;
        faces
        (
            ( 1 2 6 5 )
        );
    }

    walls
    {
        type wall;
        faces
        (
            ( 2 3 7 6 )
            ( 5 4 0 1 )
            ( 6 7 4 5 )
            ( 0 3 2 1 )
        );
    }
);

mergePatchPairs
(
);
